Circuit: *q1

.step c1=5.4e-013
.step c1=6.4e-013
.step c1=7.4e-013
.step c1=8e-013

Date: Wed Oct 25 01:48:53 2017
Total elapsed time: 0.062 seconds.

tnom = 27
temp = 27
method = trap
totiter = 0
traniter = 0
tranpoints = 0
accept = 0
rejected = 0
matrix size = 1
fillins = 0
solver = Normal

