Circuit: *q2

WARNING: Less than two connections to node 1:4.  This node is used by R:1:OUT.
Ignoring empty pin current: Ix(1:6)

Date: Wed Sep 06 10:38:52 2017
Total elapsed time: 0.031 seconds.

tnom = 27
temp = 27
method = trap
totiter = 0
traniter = 0
tranpoints = 0
accept = 0
rejected = 0
matrix size = 9
fillins = 10
solver = Normal

