Circuit: *q1

WARNING: Less than two connections to node 4.  This node is used by R2.
WARNING: Less than two connections to node 1:4.  This node is used by R:1:OUT.
Ignoring empty pin current: Ix(1:6)

Date: Tue Oct 03 22:59:39 2017
Total elapsed time: 0.015 seconds.

tnom = 27
temp = 27
method = trap
totiter = 0
traniter = 0
tranpoints = 0
accept = 0
rejected = 0
matrix size = 8
fillins = 4
solver = Normal

