Circuit: *q1

WARNING: Less than two connections to node 2.  This node is used by R:1:IN.
WARNING: Less than two connections to node 1:3.  This node is used by R:1:OUT.
.OP point found by inspection.
Ignoring empty pin current: Ix(1:6)
Ignoring empty pin current: Ix(1:6)

Date: Wed Oct 04 09:21:19 2017
Total elapsed time: 0.079 seconds.

tnom = 27
temp = 27
method = modified trap
totiter = 2094
traniter = 2094
tranpoints = 1048
accept = 1048
rejected = 0
matrix size = 6
fillins = 0
solver = Normal
Matrix Compiler1: 200 bytes object code size  0.0/0.1/[0.0]
Matrix Compiler2: 336 bytes object code size  0.1/0.1/[0.0]

