Circuit: *question 1

Direct Newton iteration for .op point succeeded.

Date: Wed Aug 16 10:24:52 2017
Total elapsed time: 0.038 seconds.

tnom = 27
temp = 27
method = modified trap
totiter = 2085
traniter = 2082
tranpoints = 1042
accept = 1042
rejected = 0
matrix size = 2
fillins = 0
solver = Normal
Matrix Compiler1:       3 opcodes  0.1/[0.1]/0.1
Matrix Compiler2: 116 bytes object code size  0.1/0.1/[0.1]

