Circuit: *question 2

Direct Newton iteration for .op point succeeded.

Date: Wed Aug 16 10:20:22 2017
Total elapsed time: 0.035 seconds.

tnom = 27
temp = 27
method = modified trap
totiter = 2169
traniter = 2166
tranpoints = 1084
accept = 1084
rejected = 0
matrix size = 3
fillins = 0
solver = Normal
Matrix Compiler1: off  [0.0]/0.1/0.1
Matrix Compiler2: 175 bytes object code size  0.1/0.2/[0.0]

