Circuit: * C:\Users\ABC\Desktop\assignment_2\Draft1.asc

Error on line 2 : v1 n001 0 ac 10 1/2*3.14
	 Unknown parameter "/2*3.14"
Unknown node in .ic card: "c1" -- ignoring
.OP point found by inspection.

Date: Tue Aug 22 12:48:38 2017
Total elapsed time: 0.063 seconds.

tnom = 27
temp = 27
method = modified trap
totiter = 2094
traniter = 2094
tranpoints = 1048
accept = 1048
rejected = 0
matrix size = 4
fillins = 0
solver = Normal
Matrix Compiler1: 136 bytes object code size  0.1/0.0/[0.0]
Matrix Compiler2:      21 opcodes  0.0/[0.0]/0.0

